tests/data/state_estimation/ill-conditioned-system/grid2-with-capacitance/asym_output.json
{
  "version": "1.0",
  "type": "asym_output",
  "is_batch": false,
  "attributes": {},
  "data": {
    "node": [
      {
        "id": 0,
        "energized": 1,
        "u_pu": [
          0.995017867285788,
          0.9950178672857882,
          0.995017867285788
        ],
        "u": [
          5744.738335259371,
          5744.738335259372,
          5744.738335259371
        ],
        "u_angle": [
          -0.007096347049360697,
          -2.101491449442555,
          2.087298755343836
        ],
        "p": [
          501111.2497450017,
          501111.2497448735,
          501111.2497448696
        ],
        "q": [
          280346.0409314471,
          280346.0409315173,
          280346.0409315187
        ]
      },
      {
        "id": 1,
        "energized": 1,
        "u_pu": [
          0.9926464181559117,
          0.9926464181559123,
          0.9926464181559118
        ],
        "u": [
          5731.046767324335,
          5731.046767324337,
          5731.046767324335
        ],
        "u_angle": [
          -0.00775106556205689,
          -2.10214616795525,
          2.08664403683114
        ],
        "p": [
          -500000.0000000445,
          -499999.9999998914,
          -499999.9999999729
        ],
        "q": [
          -299999.9999999827,
          -300000.0000000969,
          -300000.0000000309
        ]
      },
      {
        "id": 2,
        "energized": 1,
        "u_pu": [
          0.9926619327659089,
          0.9926619327659096,
          0.9926619327659091
        ],
        "u": [
          5731.136340966917,
          5731.136340966921,
          5731.136340966918
        ],
        "u_angle": [
          -0.007766852311877682,
          -2.102161954705072,
          2.086628250081319
        ],
        "p": [
          3.761639740672792e-08,
          5.691772969808456e-09,
          3.272283919211628e-08
        ],
        "q": [
          -2.921668780776623e-10,
          8.392256727000096e-08,
          1.855517476480437e-08
        ]
      }
    ],
    "line": [
      {
        "id": 3,
        "energized": 1,
        "p_from": [
          501111.2497450017,
          501111.2497448735,
          501111.2497448696
        ],
        "q_from": [
          280346.0409314471,
          280346.0409315173,
          280346.0409315187
        ],
        "i_from": [
          99.95244643179761,
          99.95244643178407,
          99.95244643178361
        ],
        "s_from": [
          574200.6507197062,
          574200.6507196287,
          574200.6507196259
        ],
        "p_to": [
          -500051.6744961346,
          -500051.6744959863,
          -500051.6744960202
        ],
        "q_to": [
          -289681.3910431248,
          -289681.3910431431,
          -289681.3910431646
        ],
        "i_to": [
          100.8365122405332,
          100.8365122405123,
          100.8365122405194
        ],
        "s_to": [
          577898.7675043683,
          577898.7675042492,
          577898.7675042893
        ]
      },
      {
        "id": 4,
        "energized": 1,
        "p_from": [
          51.67449609008805,
          51.67449609480625,
          51.67449604720775
        ],
        "q_from": [
          -10318.6089568579,
          -10318.60895695369,
          -10318.60895686631
        ],
        "i_from": [
          1.800498018105367,
          1.800498018122083,
          1.800498018106796
        ],
        "s_from": [
          10318.73834623663,
          10318.73834633244,
          10318.73834624482
        ],
        "p_to": [
          3.761639740672792e-08,
          5.691772969808456e-09,
          3.272283919211628e-08
        ],
        "q_to": [
          -2.921668780776623e-10,
          8.392256727000096e-08,
          1.855517476480437e-08
        ],
        "i_to": [
          6.563712636189232e-12,
          1.467690763929347e-11,
          6.563712636189232e-12
        ],
        "s_to": [
          3.761753202092786e-08,
          8.411535874456982e-08,
          3.761753202092787e-08
        ]
      }
    ],
    "source": [
      {
        "id": 5,
        "energized": 1,
        "p": [
          501111.2497450017,
          501111.2497448735,
          501111.2497448696
        ],
        "q": [
          280346.0409314471,
          280346.0409315172,
          280346.0409315187
        ],
        "i": [
          99.95244643179761,
          99.95244643178405,
          99.95244643178361
        ],
        "s": [
          574200.6507197062,
          574200.6507196286,
          574200.6507196259
        ],
        "pf": [
          0.8727110446790789,
          0.8727110446789736,
          0.8727110446789709
        ]
      }
    ],
    "sym_load": [
      {
        "id": 6,
        "energized": 1,
        "p": [
          500000,
          500000,
          500000
        ],
        "q": [
          299999.9999999999,
          299999.9999999999,
          299999.9999999999
        ],
        "i": [
          101.7432265269685,
          101.7432265269684,
          101.7432265269685
        ],
        "s": [
          583095.1894845299,
          583095.1894845299,
          583095.1894845299
        ],
        "pf": [
          0.8574929257125444,
          0.8574929257125444,
          0.8574929257125444
        ]
      }
    ]
  }
}
