tests/data/state_estimation/ill-conditioned-system/grid2-with-capacitance/sym_output.json
{
  "version": "1.0",
  "type": "sym_output",
  "is_batch": false,
  "attributes": {},
  "data": {
    "node": [
      {
        "id": 0,
        "energized": 1,
        "u_pu": 0.9950178672857876,
        "u": 9950.178672857875,
        "u_angle": -0.007096347049360632,
        "p": 1503333.749235005,
        "q": 841038.1227944541
      },
      {
        "id": 1,
        "energized": 1,
        "u_pu": 0.9926464181559111,
        "u": 9926.464181559111,
        "u_angle": -0.007751065562056674,
        "p": -1499999.999999963,
        "q": -899999.9999999491
      },
      {
        "id": 2,
        "energized": 1,
        "u_pu": 0.9926619327659083,
        "u": 9926.619327659084,
        "u_angle": -0.007766852311877548,
        "p": 5.642459611009186e-08,
        "q": -4.382503171164858e-10
      }
    ],
    "line": [
      {
        "id": 3,
        "energized": 1,
        "p_from": 1503333.749235005,
        "q_from": 841038.1227944541,
        "i_from": 99.95244643180085,
        "s_from": 1722601.952159174,
        "p_to": -1500155.023488403,
        "q_to": -869044.1731293742,
        "i_to": 100.8365122405332,
        "s_to": 1733696.302513104
      },
      {
        "id": 4,
        "energized": 1,
        "p_from": 155.0234884395419,
        "q_from": -30955.826870575,
        "i_from": 1.800498018105492,
        "s_from": 30956.21503871204,
        "p_to": 5.642459611009186e-08,
        "q_to": -4.382503171164858e-10,
        "i_to": 3.281856318094616e-12,
        "s_to": 5.642629803139177e-08
      }
    ],
    "source": [
      {
        "id": 5,
        "energized": 1,
        "p": 1503333.749235006,
        "q": 841038.1227944542,
        "i": 99.95244643180087,
        "s": 1722601.952159174,
        "pf": 0.8727110446790509
      }
    ],
    "sym_load": [
      {
        "id": 6,
        "energized": 1,
        "p": 1500000,
        "q": 899999.9999999999,
        "i": 101.7432265269685,
        "s": 1749285.56845359,
        "pf": 0.8574929257125443
      }
    ]
  }
}
